CRYSTAL
PRIMVEC
 4.46800000000000 0.00000000000000 0.00000000000000
 -2.23400000000000 3.86940150410887 0.00000000000000
 0.00000000000000 0.00000000000000 20.75000000000000
PRIMCOORD
 12 1
 47     0.00000000000000     0.00000000000000    10.37500000000000
 47    -0.00002234000000     2.57961390074426     6.91659750000000
 47     2.23402234000000     1.28978760336461    13.83340250000000
 83    -0.00002234000000     2.57961390074426    17.36775000000000
 83     2.23402234000000     1.28978760336461     3.38225000000000
 83     0.00000000000000     0.00000000000000     0.00000000000000
 52    -0.00002234000000     2.57961390074426     1.72225000000000
 52     2.23402234000000     1.28978760336461    19.02775000000000
 52    -0.00002234000000     2.57961390074426    12.09725000000000
 52     2.23402234000000     1.28978760336461     8.65275000000000
 52     0.00000000000000     0.00000000000000    15.56250000000000
 52     0.00000000000000     0.00000000000000     5.18750000000000
