CRYSTAL
PRIMVEC
 2.50200000000000 0.00000000000000 0.00000000000000
 -1.25100000000000 2.16679556026867 0.00000000000000
 0.00000000000000 0.00000000000000 6.53900000000000
PRIMCOORD
 4 1
  5     0.00000000000000     0.00000000000000     1.63475000000000
  5     0.00000000000000     0.00000000000000     4.90425000000000
  7    -0.00001251000000     1.44453759616431     1.63475000000000
  7     1.25101251000000     0.72225796410435     4.90425000000000
