CRYSTAL
PRIMVEC
 7.68979000000000 0.00000000000000 0.00000000000000
 0.00424110386046 7.68978883046459 0.00000000000000
 -1.92264493960225 -1.92158484699711 15.13787792631494
PRIMCOORD
 32 1
 19     4.81338331478758    -0.00349921078116    13.49239059572450
 19     4.81090820821131    -0.00597295265293     9.21442629374790
 19     0.95800284947063     5.77170319424864     1.64548733059043
 19     0.96047795604689     5.77417693612042     5.92345163256703
 19     4.80658000068667     3.85169013395254     9.27800538103842
 19     0.95572320200209     0.00295658992183    13.42881150843398
 19     0.96480616357153     1.91651384951495     5.85987254527651
 19     4.81566296225611     5.76524739354565     1.70906641788096
 31     0.96232972862447     1.94539582427013    10.02914688374217
 31     2.86413741810467     3.84615491022166    12.67767000573023
 31     4.80905643563373     3.82280815919736     5.10873104257276
 31     2.90724874615354     1.92204907324582     2.46020792058470
 31    -0.93686897935825     3.84436714642546    12.67963792986065
 31     0.96621383846069     5.74640065764567    10.02717895961175
 31     6.70825514361646     1.92383683704203     2.45823999645428
 31     4.80517232579751     0.02180332582182     5.11069896670319
 34    -1.02533604707438     5.83596612657403    11.35340844473620
 34     6.79672221133259    -0.06776214310655     3.78446948157873
 34     0.96665609598672     3.84220965420752     8.55365792226426
 34     0.96732149055702     3.84287468189787    14.15315896720815
 34     4.80473006827148     1.92599432925997     6.58422000405068
 34     4.80406467370119     1.92532930156961     0.98471895910679
 34     2.95723853541616     1.85119445251558    11.35340844473620
 34     2.81414762884204     3.91700953095190     3.78446948157873
 34     4.80748800197709     3.84798630455743    14.11652530262647
 34     0.95942653004936     0.00204654601866     8.59029158684594
 34     0.96389816228112     1.92021767891005     1.02135262368847
 34     4.81195963420884     5.76615743744883     6.54758633946900
 34    -1.03129991021159     1.85457792510656    11.35280292961915
 34     2.95605483807996     5.83973415759539    11.35401395985325
 34     6.80268607446980     3.91362605836092     3.78507499669579
 34     2.81533132617824    -0.07153017412790     3.78386396646168
