CRYSTAL
PRIMVEC
 6.86100000000000 0.00000000000000 0.00000000000000
 0.00000000000000 13.61000000000000 0.00000000000000
 -2.26214715421965 0.00000000000000 5.26782490717525
PRIMCOORD
 24 1
 11     0.49728695878109     0.79210200000000     3.41302375735884
 11     2.97049230988943     7.59710200000000     4.48871360340403
 11     4.10156588699926    12.81789800000000     1.85480114981641
 11     1.62836053589091     6.01289800000000     0.77911130377122
 11     3.98459473828939     1.89995600000000     5.03182635133380
 11    -0.51681546961887     8.70495600000000     2.86991100942908
 11     0.61425810749096    11.71004400000000     0.23599855584145
 11     5.11566831539921     4.90504400000000     2.39791389774617
 22     1.68094507305646     4.31123970000000     4.41127657726855
 22     1.78683419561406    11.11623970000000     3.49046078349432
 22     2.91790777272388     9.29876030000000     0.85654832990670
 22     2.81201865016629     2.49376030000000     1.77736412368093
 16     3.77360415731015     4.86013100000000     4.95596967267047
 16    -0.30582488863963    11.66513100000000     2.94576768809240
 16     0.82524868847020     8.74986900000000     0.31185523450477
 16     4.90467773441998     1.94486900000000     2.32205721908285
 16     0.65165945878109     6.01017600000000     3.41302375735884
 16     2.81611980988943    12.81517600000000     4.48871360340403
 16     3.94719338699926     7.59982400000000     1.85480114981641
 16     1.78273303589091     0.79482400000000     0.77911130377122
  8     1.86633994267944     2.84449000000000     3.32768499386260
  8     1.60143932599107     9.64949000000000     4.57405236690027
  8     2.73251290310090    10.76551000000000     1.94013991331264
  8     2.99741351978927     3.96051000000000     0.69377254027498
