CRYSTAL
PRIMVEC
 4.16600000000000 0.00000000000000 0.00000000000000
 0.00000000000000 4.16600000000000 0.00000000000000
 0.00000000000000 0.00000000000000 12.21500000000000
PRIMCOORD
 16 1
 38     0.00000000000000     0.00000000000000    10.18608850000000
 38     0.00000000000000     0.00000000000000     2.02891150000000
 41     2.08300000000000     2.08300000000000     8.12175350000000
 41     2.08300000000000     2.08300000000000     4.09324650000000
 41     2.08300000000000     0.00000000000000     6.10750000000000
 41     0.00000000000000     2.08300000000000     6.10750000000000
 41     2.08300000000000     2.08300000000000     0.00000000000000
  8     2.08300000000000     2.08300000000000    10.26304300000000
  8     2.08300000000000     2.08300000000000     1.95195700000000
  8     0.00000000000000     0.00000000000000     6.10750000000000
  8     0.00000000000000     2.08300000000000     8.21825200000000
  8     2.08300000000000     0.00000000000000     8.21825200000000
  8     0.00000000000000     2.08300000000000     3.99674800000000
  8     2.08300000000000     0.00000000000000     3.99674800000000
  8     0.00000000000000     2.08300000000000     0.00000000000000
  8     2.08300000000000     0.00000000000000     0.00000000000000
